Version 4
SHEET 1 4376 680
WIRE 880 -336 880 -368
WIRE 1008 -336 1008 -368
WIRE 1152 -336 1152 -368
WIRE 1488 -272 1424 -272
WIRE 1616 -272 1552 -272
WIRE 1920 -272 1616 -272
WIRE 2192 -272 2128 -272
WIRE 2320 -272 2256 -272
WIRE 2624 -272 2320 -272
WIRE 2896 -272 2832 -272
WIRE 3024 -272 2960 -272
WIRE 3328 -272 3024 -272
WIRE 3600 -272 3536 -272
WIRE 3728 -272 3664 -272
WIRE 4032 -272 3728 -272
WIRE 880 -224 880 -256
WIRE 1008 -224 1008 -256
WIRE 1152 -224 1152 -256
WIRE 1616 -208 1616 -272
WIRE 2320 -208 2320 -272
WIRE 3024 -208 3024 -272
WIRE 3728 -208 3728 -272
WIRE -320 -192 -336 -192
WIRE -208 -192 -240 -192
WIRE -80 -192 -208 -192
WIRE 0 -192 -80 -192
WIRE 96 -192 80 -192
WIRE 320 -192 96 -192
WIRE 336 -192 320 -192
WIRE 784 -192 336 -192
WIRE -208 -176 -208 -192
WIRE -80 -176 -80 -192
WIRE 320 -144 320 -192
WIRE 1728 -96 1728 -176
WIRE 2432 -96 2432 -176
WIRE 3136 -96 3136 -176
WIRE 3840 -96 3840 -176
WIRE -208 -80 -208 -96
WIRE -80 -80 -80 -112
WIRE -80 -80 -208 -80
WIRE 0 -80 -80 -80
WIRE 96 -64 96 -192
WIRE 96 -64 64 -64
WIRE -32 -48 -368 -48
WIRE 0 -48 -32 -48
WIRE 1696 -48 1664 -48
WIRE 2400 -48 2368 -48
WIRE 3104 -48 3072 -48
WIRE 3808 -48 3776 -48
WIRE -368 -32 -368 -48
WIRE 208 -32 176 -32
WIRE 320 -32 320 -64
WIRE 320 -32 272 -32
WIRE -32 -16 -32 -48
WIRE 784 -16 784 -192
WIRE 1312 -16 784 -16
WIRE 1424 -16 1424 -272
WIRE 1424 -16 1392 -16
WIRE 1488 -16 1424 -16
WIRE 1616 -16 1616 -128
WIRE 1616 -16 1552 -16
WIRE 1664 -16 1664 -48
WIRE 1664 -16 1616 -16
WIRE 1920 -16 1920 -272
WIRE 1920 -16 1840 -16
WIRE 2016 -16 1920 -16
WIRE 2128 -16 2128 -272
WIRE 2128 -16 2096 -16
WIRE 2192 -16 2128 -16
WIRE 2320 -16 2320 -128
WIRE 2320 -16 2256 -16
WIRE 2368 -16 2368 -48
WIRE 2368 -16 2320 -16
WIRE 2624 -16 2624 -272
WIRE 2624 -16 2544 -16
WIRE 2720 -16 2624 -16
WIRE 2832 -16 2832 -272
WIRE 2832 -16 2800 -16
WIRE 2896 -16 2832 -16
WIRE 3024 -16 3024 -128
WIRE 3024 -16 2960 -16
WIRE 3072 -16 3072 -48
WIRE 3072 -16 3024 -16
WIRE 3328 -16 3328 -272
WIRE 3328 -16 3248 -16
WIRE 3424 -16 3328 -16
WIRE 3536 -16 3536 -272
WIRE 3536 -16 3504 -16
WIRE 3600 -16 3536 -16
WIRE 3728 -16 3728 -128
WIRE 3728 -16 3664 -16
WIRE 3776 -16 3776 -48
WIRE 3776 -16 3728 -16
WIRE 4032 -16 4032 -272
WIRE 4032 -16 3952 -16
WIRE 4128 -16 4032 -16
WIRE 1920 0 1920 -16
WIRE 2624 0 2624 -16
WIRE 3328 0 3328 -16
WIRE 4032 0 4032 -16
WIRE 1696 16 1648 16
WIRE 2400 16 2352 16
WIRE 3104 16 3056 16
WIRE 3808 16 3760 16
WIRE 1424 32 1424 -16
WIRE 2128 32 2128 -16
WIRE 2832 32 2832 -16
WIRE 3536 32 3536 -16
WIRE -368 64 -368 48
WIRE 320 80 320 -32
WIRE 320 80 272 80
WIRE -32 96 -32 64
WIRE 80 96 -32 96
WIRE 176 96 176 -32
WIRE 176 96 160 96
WIRE 208 96 176 96
WIRE -32 112 -32 96
WIRE 320 112 272 112
WIRE 1728 112 1728 64
WIRE 2432 112 2432 64
WIRE 3136 112 3136 64
WIRE 3840 112 3840 64
WIRE 320 128 320 112
WIRE 1648 128 1648 16
WIRE 1728 128 1728 112
WIRE 2352 128 2352 16
WIRE 2432 128 2432 112
WIRE 3056 128 3056 16
WIRE 3136 128 3136 112
WIRE 3840 128 3840 112
WIRE -368 144 -368 128
WIRE -240 144 -240 128
WIRE 1424 144 1424 112
WIRE 2128 144 2128 112
WIRE 2832 144 2832 112
WIRE 3536 144 3536 112
WIRE 3760 160 3760 16
WIRE -32 208 -32 192
WIRE 320 224 320 208
WIRE -368 240 -368 224
WIRE -240 240 -240 224
FLAG -336 -192 0
FLAG -32 208 0
FLAG 320 224 0
FLAG 336 -192 AMP_OUT
FLAG -368 64 0
FLAG -368 -48 IN
FLAG -240 240 0
FLAG -368 240 0
FLAG -368 128 +V
FLAG -240 128 -V
FLAG 32 -96 +V
FLAG 240 64 +V
FLAG 32 -32 -V
FLAG 240 128 -V
FLAG 880 -224 0
FLAG 1008 -224 0
FLAG 880 -368 Vp
FLAG 1008 -368 Vn
FLAG 1152 -224 0
FLAG 1152 -368 Vref
FLAG 1728 -176 Vp
FLAG 1648 128 0
FLAG 1424 144 0
FLAG 1728 112 Vn
FLAG 2432 -176 Vp
FLAG 2352 128 0
FLAG 2128 144 0
FLAG 2432 112 Vn
FLAG 3136 -176 Vp
FLAG 3056 128 0
FLAG 2832 144 0
FLAG 3136 112 Vn
FLAG 3840 -176 Vp
FLAG 3536 144 0
FLAG 3840 112 Vn
FLAG 4128 -16 FILTER_OUT
FLAG 3760 240 0
DATAFLAG -336 -192 ""
DATAFLAG 320 240 ""
SYMBOL LT1792 32 -128 R0
WINDOW 0 28 34 Left 2
WINDOW 3 26 84 Left 2
SYMATTR InstName U1
SYMBOL res 96 -208 R90
WINDOW 0 0 56 VBottom 2
WINDOW 3 32 56 VTop 2
SYMATTR InstName R1
SYMATTR Value 20K
SYMBOL res -224 -80 M180
WINDOW 0 36 76 Left 2
WINDOW 3 36 40 Left 2
SYMATTR InstName R2
SYMATTR Value 100Meg
SYMBOL res -224 -208 R90
WINDOW 0 0 56 VBottom 2
WINDOW 3 32 56 VTop 2
SYMATTR InstName R3
SYMATTR Value 200
SYMBOL res -48 -32 R0
SYMATTR InstName R4
SYMATTR Value 100Meg
SYMBOL res -48 96 R0
SYMATTR InstName R5
SYMATTR Value 1Meg
SYMBOL res 176 80 R90
WINDOW 0 0 56 VBottom 2
WINDOW 3 32 56 VTop 2
SYMATTR InstName R6
SYMATTR Value 100K
SYMBOL res 304 -160 R0
SYMATTR InstName R7
SYMATTR Value 1Meg
SYMBOL res 304 112 R0
SYMATTR InstName R8
SYMATTR Value 1Meg
SYMBOL cap 272 -48 R90
WINDOW 0 0 32 VBottom 2
WINDOW 3 32 32 VTop 2
SYMATTR InstName C1
SYMATTR Value .47µ
SYMBOL voltage -368 -48 R0
WINDOW 123 27 129 Left 2
WINDOW 39 27 101 Left 2
WINDOW 3 40 56 Left 2
SYMATTR Value2 AC .01
SYMATTR SpiceLine Rser=1m Cpar=10p
SYMATTR Value ""
SYMATTR InstName V1
SYMBOL voltage -368 128 R0
WINDOW 123 0 0 Left 2
WINDOW 39 0 0 Left 2
SYMATTR InstName V2
SYMATTR Value 5
SYMBOL voltage -240 128 R0
WINDOW 123 0 0 Left 2
WINDOW 39 0 0 Left 2
SYMATTR InstName V3
SYMATTR Value 5
SYMBOL cap -96 -176 R0
SYMATTR InstName C2
SYMATTR Value 100p
SYMBOL Opamps\\LT1097 240 32 M0
WINDOW 0 -64 15 Left 2
WINDOW 3 -58 141 Left 2
SYMATTR InstName U2
SYMBOL voltage 880 -352 R0
WINDOW 123 0 0 Left 2
WINDOW 39 0 0 Left 2
SYMATTR InstName V4
SYMATTR Value 5
SYMBOL voltage 1008 -352 R0
WINDOW 123 0 0 Left 2
WINDOW 39 0 0 Left 2
SYMATTR InstName V5
SYMATTR Value -5
SYMBOL voltage 1152 -352 R0
WINDOW 123 0 0 Left 2
WINDOW 39 0 0 Left 2
SYMATTR InstName V6
SYMATTR Value 0
SYMBOL res 1408 -32 R90
WINDOW 0 0 56 VBottom 2
WINDOW 3 32 56 VTop 2
SYMATTR InstName R9
SYMATTR Value 825
SYMBOL cap 1552 -288 R90
WINDOW 0 0 32 VBottom 2
WINDOW 3 32 32 VTop 2
SYMATTR InstName C3
SYMATTR Value 3.3E-9
SYMBOL res 1600 -224 R0
SYMATTR InstName R10
SYMATTR Value 4.99E3
SYMBOL cap 1552 -32 R90
WINDOW 0 0 32 VBottom 2
WINDOW 3 32 32 VTop 2
SYMATTR InstName C4
SYMATTR Value 3.3E-9
SYMBOL res 1408 16 R0
SYMATTR InstName R11
SYMATTR Value 267
SYMBOL OpAmps\\LT6236 1728 -16 R0
SYMATTR InstName U3
SYMBOL res 2112 -32 R90
WINDOW 0 0 56 VBottom 2
WINDOW 3 32 56 VTop 2
SYMATTR InstName R12
SYMATTR Value 806
SYMBOL cap 2256 -288 R90
WINDOW 0 0 32 VBottom 2
WINDOW 3 32 32 VTop 2
SYMATTR InstName C5
SYMATTR Value 10E-9
SYMBOL res 2304 -224 R0
SYMATTR InstName R13
SYMATTR Value 4.87E3
SYMBOL cap 2256 -32 R90
WINDOW 0 0 32 VBottom 2
WINDOW 3 32 32 VTop 2
SYMATTR InstName C6
SYMATTR Value 10E-9
SYMBOL res 2112 16 R0
SYMATTR InstName R14
SYMATTR Value 261
SYMBOL OpAmps\\LT6236 2432 -16 R0
SYMATTR InstName U4
SYMBOL res 2816 -32 R90
WINDOW 0 0 56 VBottom 2
WINDOW 3 32 56 VTop 2
SYMATTR InstName R15
SYMATTR Value 845
SYMBOL cap 2960 -288 R90
WINDOW 0 0 32 VBottom 2
WINDOW 3 32 32 VTop 2
SYMATTR InstName C7
SYMATTR Value 4.3E-9
SYMBOL res 3008 -224 R0
SYMATTR InstName R16
SYMATTR Value 1.87E3
SYMBOL cap 2960 -32 R90
WINDOW 0 0 32 VBottom 2
WINDOW 3 32 32 VTop 2
SYMATTR InstName C8
SYMATTR Value 4.3E-9
SYMBOL res 2816 16 R0
SYMATTR InstName R17
SYMATTR Value 1.54E3
SYMBOL OpAmps\\LT6236 3136 -16 R0
SYMATTR InstName U5
SYMBOL res 3520 -32 R90
WINDOW 0 0 56 VBottom 2
WINDOW 3 32 56 VTop 2
SYMATTR InstName R18
SYMATTR Value 825
SYMBOL cap 3664 -288 R90
WINDOW 0 0 32 VBottom 2
WINDOW 3 32 32 VTop 2
SYMATTR InstName C9
SYMATTR Value 7.5E-9
SYMBOL res 3712 -224 R0
SYMATTR InstName R19
SYMATTR Value 1.87E3
SYMBOL cap 3664 -32 R90
WINDOW 0 0 32 VBottom 2
WINDOW 3 32 32 VTop 2
SYMATTR InstName C10
SYMATTR Value 7.5E-9
SYMBOL res 3520 16 R0
SYMATTR InstName R20
SYMATTR Value 1.5E3
SYMBOL OpAmps\\LT6236 3840 -16 R0
SYMATTR InstName U6
SYMBOL voltage 3760 144 R0
WINDOW 123 0 0 Left 2
WINDOW 39 0 0 Left 2
SYMATTR InstName V7
SYMATTR Value 1.75
TEXT 376 240 Left 2 !;tran 10m startup
TEXT 40 -240 Bottom 2 ;LT1792 - Low Noise, Precision, JFET Input Op Amp\nLT1097 - Low Power Precision Op Amp\nLow Noise Hydrophone Amplifier with DC Servo
TEXT -520 504 Left 2 ;Note:\n  If the simulation model is not found please update with the "Sync Release" command from the "Tools" menu.\n  It remains the customer's responsibility to verify proper and reliable operation in the actual application.\n  Component substitution and printed circuit board layout may significantly affect circuit performance or reliability.\n  Contact your local sales representative for assistance. This circuit is distributed to customers only for use with LTC parts.\n  Copyright © 2015 Linear Technology Inc. All rights reserved.
TEXT 112 -440 Left 2 !.ac dec 1000 1 1meg
