Version 4
SHEET 1 880 680
WIRE 64 -96 64 -192
WIRE 496 -96 496 -192
WIRE 64 16 64 -16
WIRE 64 16 -80 16
WIRE 496 16 496 -16
WIRE 624 16 496 16
WIRE 64 96 64 16
WIRE 496 96 496 16
WIRE -464 144 -464 48
WIRE 0 144 -80 144
WIRE 624 144 560 144
WIRE 64 224 64 192
WIRE 288 224 64 224
WIRE 496 224 496 192
WIRE 496 224 288 224
WIRE -464 272 -464 224
WIRE -336 272 -464 272
WIRE -464 352 -464 272
WIRE 288 352 288 224
WIRE -336 400 -336 272
WIRE -336 400 -400 400
WIRE 224 400 -336 400
WIRE -464 496 -464 448
WIRE 288 496 288 448
FLAG -464 496 -VEE
FLAG 288 496 -VEE
FLAG 64 -192 +VCC
FLAG 496 -192 +VCC
FLAG -464 48 +VCC
FLAG 624 16 Vo2
FLAG -80 16 Vo1
FLAG -80 144 Vi1
FLAG 624 144 Vi2
FLAG -432 -240 Vi2
FLAG -848 -240 +VCC
FLAG -736 -240 -VEE
FLAG -848 -160 0
FLAG -736 -160 0
FLAG -544 -160 0
FLAG -432 -160 0
FLAG -544 -240 Vi1
SYMBOL npn 0 96 R0
SYMATTR InstName Q1
SYMATTR Value 2N2222
SYMBOL npn 560 96 M0
SYMATTR InstName Q2
SYMATTR Value 2N2222
SYMBOL npn -400 352 M0
SYMATTR InstName Q3
SYMATTR Value 2N2222
SYMBOL npn 224 352 R0
SYMATTR InstName Q4
SYMATTR Value 2N2222
SYMBOL res -480 128 R0
SYMATTR InstName R1
SYMATTR Value 100k
SYMBOL res 48 -112 R0
SYMATTR InstName R2
SYMATTR Value 10k
SYMBOL res 480 -112 R0
SYMATTR InstName R3
SYMATTR Value 10k
SYMBOL voltage -848 -256 R0
WINDOW 123 0 0 Left 0
WINDOW 39 0 0 Left 0
SYMATTR InstName +VCC
SYMATTR Value 9
SYMBOL voltage -736 -256 R0
WINDOW 123 0 0 Left 0
WINDOW 39 0 0 Left 0
SYMATTR InstName -VEE
SYMATTR Value -9
SYMBOL voltage -544 -256 R0
WINDOW 3 -115 126 Left 2
WINDOW 123 0 0 Left 0
WINDOW 39 0 0 Left 0
SYMATTR InstName Vi1
SYMATTR Value SINE(0 .0005 100)
SYMBOL voltage -432 -256 R0
WINDOW 3 0 128 Left 2
WINDOW 123 0 0 Left 0
WINDOW 39 0 0 Left 0
SYMATTR InstName Vi2
SYMATTR Value SINE(0 -.0005 100)
TEXT -882 598 Left 2 !.tran .1
