Version 4
SHEET 1 4376 680
WIRE -112 -544 -112 -576
WIRE 16 -544 16 -576
WIRE 160 -544 160 -576
WIRE -112 -432 -112 -464
WIRE 16 -432 16 -464
WIRE 160 -432 160 -464
WIRE 752 -240 688 -240
WIRE 880 -240 816 -240
WIRE 1184 -240 880 -240
WIRE 1456 -240 1392 -240
WIRE 1584 -240 1520 -240
WIRE 1888 -240 1584 -240
WIRE 2160 -240 2096 -240
WIRE 2288 -240 2224 -240
WIRE 2592 -240 2288 -240
WIRE 2864 -240 2800 -240
WIRE 2992 -240 2928 -240
WIRE 3296 -240 2992 -240
WIRE -320 -192 -336 -192
WIRE -208 -192 -240 -192
WIRE -80 -192 -208 -192
WIRE 0 -192 -80 -192
WIRE 96 -192 80 -192
WIRE 320 -192 96 -192
WIRE 336 -192 320 -192
WIRE 464 -192 336 -192
WIRE -208 -176 -208 -192
WIRE -80 -176 -80 -192
WIRE 880 -176 880 -240
WIRE 1584 -176 1584 -240
WIRE 2288 -176 2288 -240
WIRE 2992 -176 2992 -240
WIRE 320 -144 320 -192
WIRE -208 -80 -208 -96
WIRE -80 -80 -80 -112
WIRE -80 -80 -208 -80
WIRE 0 -80 -80 -80
WIRE 96 -64 96 -192
WIRE 96 -64 64 -64
WIRE 992 -64 992 -144
WIRE 1696 -64 1696 -144
WIRE 2400 -64 2400 -144
WIRE 3104 -64 3104 -144
WIRE -32 -48 -368 -48
WIRE 0 -48 -32 -48
WIRE -368 -32 -368 -48
WIRE 208 -32 176 -32
WIRE 320 -32 320 -64
WIRE 320 -32 272 -32
WIRE -32 -16 -32 -48
WIRE 960 -16 928 -16
WIRE 1664 -16 1632 -16
WIRE 2368 -16 2336 -16
WIRE 3072 -16 3040 -16
WIRE 464 16 464 -192
WIRE 576 16 464 16
WIRE 688 16 688 -240
WIRE 688 16 656 16
WIRE 752 16 688 16
WIRE 880 16 880 -96
WIRE 880 16 816 16
WIRE 928 16 928 -16
WIRE 928 16 880 16
WIRE 1184 16 1184 -240
WIRE 1184 16 1104 16
WIRE 1280 16 1184 16
WIRE 1392 16 1392 -240
WIRE 1392 16 1360 16
WIRE 1456 16 1392 16
WIRE 1584 16 1584 -96
WIRE 1584 16 1520 16
WIRE 1632 16 1632 -16
WIRE 1632 16 1584 16
WIRE 1888 16 1888 -240
WIRE 1888 16 1808 16
WIRE 1984 16 1888 16
WIRE 2096 16 2096 -240
WIRE 2096 16 2064 16
WIRE 2160 16 2096 16
WIRE 2288 16 2288 -96
WIRE 2288 16 2224 16
WIRE 2336 16 2336 -16
WIRE 2336 16 2288 16
WIRE 2592 16 2592 -240
WIRE 2592 16 2512 16
WIRE 2688 16 2592 16
WIRE 2800 16 2800 -240
WIRE 2800 16 2768 16
WIRE 2864 16 2800 16
WIRE 2992 16 2992 -96
WIRE 2992 16 2928 16
WIRE 3040 16 3040 -16
WIRE 3040 16 2992 16
WIRE 3296 16 3296 -240
WIRE 3296 16 3216 16
WIRE 3392 16 3296 16
WIRE 1184 32 1184 16
WIRE 1888 32 1888 16
WIRE 2592 32 2592 16
WIRE 3296 32 3296 16
WIRE 960 48 912 48
WIRE 1664 48 1616 48
WIRE 2368 48 2320 48
WIRE 3024 48 2960 48
WIRE 3072 48 3024 48
WIRE -368 64 -368 48
WIRE 688 64 688 16
WIRE 1392 64 1392 16
WIRE 2096 64 2096 16
WIRE 2800 64 2800 16
WIRE 320 80 320 -32
WIRE 320 80 272 80
WIRE 2960 80 2960 48
WIRE 3024 80 3024 48
WIRE -32 96 -32 64
WIRE 80 96 -32 96
WIRE 176 96 176 -32
WIRE 176 96 160 96
WIRE 208 96 176 96
WIRE -32 112 -32 96
WIRE 320 112 272 112
WIRE 320 128 320 112
WIRE -368 144 -368 128
WIRE -240 144 -240 128
WIRE 992 144 992 96
WIRE 1696 144 1696 96
WIRE 2400 144 2400 96
WIRE 3104 144 3104 96
WIRE 912 160 912 48
WIRE 992 160 992 144
WIRE 1616 160 1616 48
WIRE 1616 160 1456 160
WIRE 1696 160 1696 144
WIRE 2320 160 2320 48
WIRE 2400 160 2400 144
WIRE 3104 160 3104 144
WIRE 688 176 688 144
WIRE 1392 176 1392 144
WIRE 2096 176 2096 144
WIRE 2800 176 2800 144
WIRE -32 208 -32 192
WIRE 320 224 320 208
WIRE -368 240 -368 224
WIRE -240 240 -240 224
WIRE 2960 256 2960 240
WIRE 3024 256 3024 240
FLAG -336 -192 0
FLAG -32 208 0
FLAG 320 224 0
FLAG 336 -192 AMP_OUT
FLAG -368 64 0
FLAG -368 -48 IN
FLAG -240 240 0
FLAG -368 240 0
FLAG -368 128 +V
FLAG -240 128 -V
FLAG 32 -96 +V
FLAG 240 64 +V
FLAG 32 -32 -V
FLAG 240 128 -V
FLAG -112 -432 0
FLAG 16 -432 0
FLAG -112 -576 Vp
FLAG 16 -576 Vn
FLAG 160 -432 0
FLAG 160 -576 Vref
FLAG 992 -144 Vp
FLAG 912 160 0
FLAG 688 176 0
FLAG 992 144 Vn
FLAG 1696 -144 Vp
FLAG 1392 176 0
FLAG 1696 144 Vn
FLAG 2400 -144 Vp
FLAG 2320 160 0
FLAG 2096 176 0
FLAG 2400 144 Vn
FLAG 3104 -144 Vp
FLAG 2800 176 0
FLAG 3104 144 Vn
FLAG 3392 16 FILTER_OUT
FLAG 1456 160 0
FLAG 2960 256 Vp
FLAG 3024 256 0
DATAFLAG -336 -192 ""
DATAFLAG 320 240 ""
SYMBOL LT1792 32 -128 R0
WINDOW 0 28 34 Left 2
WINDOW 3 26 84 Left 2
SYMATTR InstName U1
SYMBOL res 96 -208 R90
WINDOW 0 0 56 VBottom 2
WINDOW 3 32 56 VTop 2
SYMATTR InstName R1
SYMATTR Value 30k
SYMBOL res -224 -80 M180
WINDOW 0 36 76 Left 2
WINDOW 3 36 40 Left 2
SYMATTR InstName R2
SYMATTR Value 100Meg
SYMBOL res -224 -208 R90
WINDOW 0 0 56 VBottom 2
WINDOW 3 32 56 VTop 2
SYMATTR InstName R3
SYMATTR Value 200
SYMBOL res -48 -32 R0
SYMATTR InstName R4
SYMATTR Value 100Meg
SYMBOL res -48 96 R0
SYMATTR InstName R5
SYMATTR Value 1Meg
SYMBOL res 176 80 R90
WINDOW 0 0 56 VBottom 2
WINDOW 3 32 56 VTop 2
SYMATTR InstName R6
SYMATTR Value 100K
SYMBOL res 304 -160 R0
SYMATTR InstName R7
SYMATTR Value 1Meg
SYMBOL res 304 112 R0
SYMATTR InstName R8
SYMATTR Value 1Meg
SYMBOL cap 272 -48 R90
WINDOW 0 0 32 VBottom 2
WINDOW 3 32 32 VTop 2
SYMATTR InstName C1
SYMATTR Value .47µ
SYMBOL voltage -368 -48 R0
WINDOW 123 0 0 Left 2
WINDOW 39 27 101 Left 2
WINDOW 3 40 56 Left 2
SYMATTR SpiceLine Rser=1m Cpar=10p
SYMATTR Value SINE(10m 10m 40K 3m)
SYMATTR InstName V1
SYMBOL voltage -368 128 R0
WINDOW 123 0 0 Left 2
WINDOW 39 0 0 Left 2
SYMATTR InstName V2
SYMATTR Value 5
SYMBOL voltage -240 128 R0
WINDOW 123 0 0 Left 2
WINDOW 39 0 0 Left 2
SYMATTR InstName V3
SYMATTR Value -5
SYMBOL cap -96 -176 R0
SYMATTR InstName C2
SYMATTR Value 5n
SYMBOL Opamps\\LT1097 240 32 M0
WINDOW 0 -64 15 Left 2
WINDOW 3 -58 141 Left 2
SYMATTR InstName U2
SYMBOL voltage -112 -560 R0
WINDOW 123 0 0 Left 2
WINDOW 39 0 0 Left 2
SYMATTR InstName V4
SYMATTR Value 5
SYMBOL voltage 16 -560 R0
WINDOW 123 0 0 Left 2
WINDOW 39 0 0 Left 2
SYMATTR InstName V5
SYMATTR Value -5
SYMBOL voltage 160 -560 R0
WINDOW 123 0 0 Left 2
WINDOW 39 0 0 Left 2
SYMATTR InstName V6
SYMATTR Value 0
SYMBOL res 672 0 R90
WINDOW 0 0 56 VBottom 2
WINDOW 3 32 56 VTop 2
SYMATTR InstName R9
SYMATTR Value 825
SYMBOL cap 816 -256 R90
WINDOW 0 0 32 VBottom 2
WINDOW 3 32 32 VTop 2
SYMATTR InstName C3
SYMATTR Value 3.3E-9
SYMBOL res 864 -192 R0
SYMATTR InstName R10
SYMATTR Value 4.99E3
SYMBOL cap 816 0 R90
WINDOW 0 0 32 VBottom 2
WINDOW 3 32 32 VTop 2
SYMATTR InstName C4
SYMATTR Value 3.3E-9
SYMBOL res 672 48 R0
SYMATTR InstName R11
SYMATTR Value 267
SYMBOL OpAmps\\LT6236 992 16 R0
SYMATTR InstName U3
SYMBOL res 1376 0 R90
WINDOW 0 0 56 VBottom 2
WINDOW 3 32 56 VTop 2
SYMATTR InstName R12
SYMATTR Value 806
SYMBOL cap 1520 -256 R90
WINDOW 0 0 32 VBottom 2
WINDOW 3 32 32 VTop 2
SYMATTR InstName C5
SYMATTR Value 10E-9
SYMBOL res 1568 -192 R0
SYMATTR InstName R13
SYMATTR Value 4.87E3
SYMBOL cap 1520 0 R90
WINDOW 0 0 32 VBottom 2
WINDOW 3 32 32 VTop 2
SYMATTR InstName C6
SYMATTR Value 10E-9
SYMBOL res 1376 48 R0
SYMATTR InstName R14
SYMATTR Value 261
SYMBOL OpAmps\\LT6236 1696 16 R0
SYMATTR InstName U4
SYMBOL res 2080 0 R90
WINDOW 0 0 56 VBottom 2
WINDOW 3 32 56 VTop 2
SYMATTR InstName R15
SYMATTR Value 845
SYMBOL cap 2224 -256 R90
WINDOW 0 0 32 VBottom 2
WINDOW 3 32 32 VTop 2
SYMATTR InstName C7
SYMATTR Value 4.3E-9
SYMBOL res 2272 -192 R0
SYMATTR InstName R16
SYMATTR Value 1.87E3
SYMBOL cap 2224 0 R90
WINDOW 0 0 32 VBottom 2
WINDOW 3 32 32 VTop 2
SYMATTR InstName C8
SYMATTR Value 4.3E-9
SYMBOL res 2080 48 R0
SYMATTR InstName R17
SYMATTR Value 1.54E3
SYMBOL OpAmps\\LT6236 2400 16 R0
SYMATTR InstName U5
SYMBOL res 2784 0 R90
WINDOW 0 0 56 VBottom 2
WINDOW 3 32 56 VTop 2
SYMATTR InstName R18
SYMATTR Value 825
SYMBOL cap 2928 -256 R90
WINDOW 0 0 32 VBottom 2
WINDOW 3 32 32 VTop 2
SYMATTR InstName C9
SYMATTR Value 7.5E-9
SYMBOL res 2976 -192 R0
SYMATTR InstName R19
SYMATTR Value 1.87E3
SYMBOL cap 2928 0 R90
WINDOW 0 0 32 VBottom 2
WINDOW 3 32 32 VTop 2
SYMATTR InstName C10
SYMATTR Value 7.5E-9
SYMBOL res 2784 48 R0
SYMATTR InstName R20
SYMATTR Value 1.5E3
SYMBOL OpAmps\\LT6236 3104 16 R0
SYMATTR InstName U6
SYMBOL res 2944 64 R0
SYMATTR InstName R21
SYMATTR Value 150k
SYMBOL res 2944 144 R0
SYMATTR InstName R22
SYMATTR Value 200k
SYMBOL res 3008 64 R0
SYMATTR InstName R23
SYMATTR Value 200k
SYMBOL res 3008 144 R0
SYMATTR InstName R24
SYMATTR Value 200k
TEXT 376 240 Left 2 !.tran 10m startup
TEXT 40 -240 Bottom 2 ;LT1792 - Low Noise, Precision, JFET Input Op Amp\nLT1097 - Low Power Precision Op Amp\nLow Noise Hydrophone Amplifier with DC Servo
TEXT -584 248 Left 2 ;Note:\n  If the simulation model is not found please update with the "Sync Release" command from the "Tools" menu.\n  It remains the customer's responsibility to verify proper and reliable operation in the actual application.\n  Component substitution and printed circuit board layout may significantly affect circuit performance or reliability.\n  Contact your local sales representative for assistance. This circuit is distributed to customers only for use with LTC parts.\n  Copyright © 2015 Linear Technology Inc. All rights reserved.
